<?xml version="1.0" encoding="UTF-8"?>

<!-- generated on 2025-08-20 10:59:28.097877 by randomTrips.py UNKNOWN
<configuration>
    <net-file value="sumo_data/road.net.xml"/>
    <additional-files value="sumo_data/vtypes.add.xml"/>
    <route-file value="sumo_data/road_Lbd1.00.rou.xml"/>
    <trip-attributes value="type='car'"/>
    <random-factor value="3.0"/>
    <random value="True"/>
    <end value="1000.0"/>
    <period value="1.0"/>
    <flows value="8"/>
    <random-depart value="True"/>
</configuration>
-->

<routes xmlns:xsi="http://www.w3.org/2001/XMLSchema-instance" xsi:noNamespaceSchemaLocation="http://sumo.dlr.de/xsd/routes_file.xsd">
    <flow id="0" begin="0" end="1000" period="8" from="E3" to="-E7" type='car'/>
    <flow id="1" begin="0" end="1000" period="8" from="-E6" to="-E7" type='car'/>
    <flow id="2" begin="0" end="1000" period="8" from="-E7" to="E10" type='car'/>
    <flow id="3" begin="0" end="1000" period="8" from="E3" to="E5" type='car'/>
    <flow id="4" begin="0" end="1000" period="8" from="-E3" to="-E7" type='car'/>
    <flow id="5" begin="0" end="1000" period="8" from="E2" to="E6" type='car'/>
    <flow id="6" begin="0" end="1000" period="8" from="-E3" to="-E3" type='car'/>
    <flow id="7" begin="0" end="1000" period="8" from="E6" to="E5" type='car'/>
</routes>
