<?xml version="1.0" encoding="UTF-8"?>

<routes xmlns:xsi="http://www.w3.org/2001/XMLSchema-instance" xsi:noNamespaceSchemaLocation="http://sumo.dlr.de/xsd/routes_file.xsd">
    <vType id="typecar" length="5" minGap="0.3" maxSpeed="20" accel="3" decel="6" sigma="0.5"/>
    <!-- Routes -->
    <route id="r_0" edges="E0 -E2"/>
    <route id="r_1" edges="E0 E1 E5"/>
    <route id="r_10" edges="E2 E1 E6 E9"/>
    <route id="r_11" edges="E2 E3 E10"/>
    <route id="r_12" edges="E2 E3 E11"/>
    <route id="r_13" edges="E2 -E0"/>
    <route id="r_14" edges="-E5 E4"/>
    <route id="r_15" edges="-E5 E6 E8"/>
    <route id="r_16" edges="-E5 E6 E9"/>
    <route id="r_17" edges="-E5 E6 E7 E10"/>
    <route id="r_18" edges="-E5 E6 E7 E11"/>
    <route id="r_19" edges="-E5 -E1 -E0"/>
    <route id="r_2" edges="E0 E1 E4"/>
    <route id="r_20" edges="-E5 -E1 -E2"/>
    <route id="r_21" edges="-E4 E6 E8"/>
    <route id="r_22" edges="-E4 E6 E9"/>
    <route id="r_23" edges="-E4 E6 E7 E10"/>
    <route id="r_24" edges="-E4 E6 E7 E11"/>
    <route id="r_25" edges="-E4 -E1 -E0"/>
    <route id="r_26" edges="-E4 -E1 -E2"/>
    <route id="r_27" edges="-E4 E5"/>
    <route id="r_28" edges="-E8 E9"/>
    <route id="r_29" edges="-E8 E7 E10"/>
    <route id="r_3" edges="E0 E1 E6 E8"/>
    <route id="r_30" edges="-E8 E7 E11"/>
    <route id="r_31" edges="-E8 E7 -E3 -E0"/>
    <route id="r_32" edges="-E8 E7 -E3 -E2"/>
    <route id="r_33" edges="-E8 -E6 E5"/>
    <route id="r_34" edges="-E8 -E6 E4"/>
    <route id="r_35" edges="-E9 E7 E10"/>
    <route id="r_36" edges="-E9 E7 E11"/>
    <route id="r_37" edges="-E9 E7 -E3 -E0"/>
    <route id="r_38" edges="-E9 E7 -E3 -E2"/>
    <route id="r_39" edges="-E9 -E6 E5"/>
    <route id="r_4" edges="E0 E1 E6 E9"/>
    <route id="r_40" edges="-E9 -E6 E4"/>
    <route id="r_41" edges="-E9 E8"/>
    <route id="r_42" edges="-E10 E11"/>
    <route id="r_43" edges="-E10 -E3 -E0"/>
    <route id="r_44" edges="-E10 -E3 -E2"/>
    <route id="r_45" edges="-E10 -E3 E1 E5"/>
    <route id="r_46" edges="-E10 -E3 E1 E4"/>
    <route id="r_47" edges="-E10 -E7 E8"/>
    <route id="r_48" edges="-E10 -E7 E9"/>
    <route id="r_49" edges="-E11 -E3 -E0"/>
    <route id="r_5" edges="E0 E3 E10"/>
    <route id="r_50" edges="-E11 -E3 -E2"/>
    <route id="r_51" edges="-E11 -E3 E1 E5"/>
    <route id="r_52" edges="-E11 -E3 E1 E4"/>
    <route id="r_53" edges="-E11 -E7 E8"/>
    <route id="r_54" edges="-E11 -E7 E9"/>
    <route id="r_55" edges="-E11 E10"/>
    <route id="r_6" edges="E0 E3 E11"/>
    <route id="r_7" edges="E2 E1 E5"/>
    <route id="r_8" edges="E2 E1 E4"/>
    <route id="r_9" edges="E2 E1 E6 E8"/>
    <routeDistribution id="rd_0" routes="r_0 r_1 r_10 r_11 r_12 r_13 r_14 r_15 r_16 r_17 r_18 r_19 r_2 r_20 r_21 r_22 r_23 r_24 r_25 r_26 r_27 r_28 r_29 r_3 r_30 r_31 r_32 r_33 r_34 r_35 r_36 r_37 r_38 r_39 r_4 r_40 r_41 r_42 r_43 r_44 r_45 r_46 r_47 r_48 r_49 r_5 r_50 r_51 r_52 r_53 r_54 r_55 r_6 r_7 r_8 r_9" probabilities="0.50 0.50 0.50 0.50 0.50 0.50 0.50 0.50 0.50 0.50 0.50 0.50 0.50 0.50 0.50 0.50 0.50 0.50 0.50 0.50 0.50 0.50 0.50 0.50 0.50 0.50 0.50 0.50 0.50 0.50 0.50 0.50 0.50 0.50 0.50 0.50 0.50 0.50 0.50 0.50 0.50 0.50 0.50 0.50 0.50 0.50 0.50 0.50 0.50 0.50 0.50 0.50 0.50 0.50 0.50 0.50"/>
    <routeDistribution id="rd_1" routes="r_0 r_1 r_2 r_3 r_4 r_5 r_6" probabilities="0.50 0.50 0.50 0.50 0.50 0.50 0.50"/>
    <routeDistribution id="rd_2" routes="r_7 r_8 r_9 r_10 r_11 r_12 r_13" probabilities="0.50 0.50 0.50 0.50 0.50 0.50 0.50"/>
    <routeDistribution id="rd_3" routes="r_14 r_15 r_16 r_17 r_18 r_19 r_20" probabilities="0.50 0.50 0.50 0.50 0.50 0.50 0.50"/>
    <routeDistribution id="rd_4" routes="r_21 r_22 r_23 r_24 r_25 r_26 r_27" probabilities="0.50 0.50 0.50 0.50 0.50 0.50 0.50"/>
    <routeDistribution id="rd_5" routes="r_28 r_29 r_30 r_31 r_32 r_33 r_34" probabilities="0.50 0.50 0.50 0.50 0.50 0.50 0.50"/>
    <routeDistribution id="rd_6" routes="r_35 r_36 r_37 r_38 r_39 r_40 r_41" probabilities="0.50 0.50 0.50 0.50 0.50 0.50 0.50"/>
    <routeDistribution id="rd_7" routes="r_42 r_43 r_44 r_45 r_46 r_47 r_48" probabilities="0.50 0.50 0.50 0.50 0.50 0.50 0.50"/>
    <routeDistribution id="rd_8" routes="r_49 r_50 r_51 r_52 r_53 r_54 r_55" probabilities="0.50 0.50 0.50 0.50 0.50 0.50 0.50"/>
    <!-- Vehicles, persons and containers (sorted by depart) -->
    <flow id="flow0" type="typecar" begin="0.00" color="blue" end="1000" probability="0.012902216769226168" route="rd_0"/>
    <flow id="flow1" type="typecar" begin="0.00" color="blue" end="1000" probability="0.017169589238257725" route="rd_1"/>
    <flow id="flow2" type="typecar" begin="0.00" color="blue" end="1000" probability="0.00703645500348951" route="rd_2"/>
    <flow id="flow3" type="typecar" begin="0.00" color="blue" end="1000" probability="0.011288571833632726" route="rd_3"/>
    <flow id="flow4" type="typecar" begin="0.00" color="blue" end="1000" probability="0.009099655904988712" route="rd_4"/>
    <flow id="flow5" type="typecar" begin="0.00" color="blue" end="1000" probability="0.00833402133350617" route="rd_5"/>
    <flow id="flow6" type="typecar" begin="0.00" color="blue" end="1000" probability="0.009655469510964972" route="rd_6"/>
    <flow id="flow7" type="typecar" begin="0.00" color="blue" end="1000" probability="0.0118967786333462" route="rd_7"/>
    <flow id="flow8" type="typecar" begin="0.00" color="blue" end="1000" probability="0.012617241772587823" route="rd_8"/>

</routes>

