<?xml version="1.0" encoding="UTF-8"?>

<net version="1.20" junctionCornerDetail="5" limitTurnSpeed="5.50" xmlns:xsi="http://www.w3.org/2001/XMLSchema-instance" xsi:noNamespaceSchemaLocation="http://sumo.dlr.de/xsd/net_file.xsd">

    <location netOffset="0.00,0.00" convBoundary="-500.00,-500.00,500.00,500.00" origBoundary="-10000000000.00,-10000000000.00,10000000000.00,10000000000.00" projParameter="!"/>

    <edge id=":NE_Center_0" function="internal">
        <lane id=":NE_Center_0_0" index="0" speed="6.51" length="9.03" shape="242.00,263.60 241.65,261.15 240.60,259.40 238.85,258.35 236.40,258.00"/>
    </edge>
    <edge id=":NE_Center_1" function="internal">
        <lane id=":NE_Center_1_0" index="0" speed="13.89" length="27.20" shape="242.00,263.60 242.00,236.40"/>
        <lane id=":NE_Center_1_1" index="1" speed="13.89" length="27.20" shape="245.20,263.60 245.20,236.40"/>
        <lane id=":NE_Center_1_2" index="2" speed="13.89" length="27.20" shape="248.40,263.60 248.40,236.40"/>
    </edge>
    <edge id=":NE_Center_4" function="internal">
        <lane id=":NE_Center_4_0" index="0" speed="10.36" length="5.01" shape="248.40,263.60 249.11,258.64"/>
    </edge>
    <edge id=":NE_Center_20" function="internal">
        <lane id=":NE_Center_20_0" index="0" speed="10.36" length="19.50" shape="249.11,258.64 249.35,256.95 252.20,252.20 256.95,249.35 263.60,248.40"/>
    </edge>
    <edge id=":NE_Center_5" function="internal">
        <lane id=":NE_Center_5_0" index="0" speed="6.51" length="9.03" shape="263.60,258.00 261.15,258.35 259.40,259.40 258.35,261.15 258.00,263.60"/>
    </edge>
    <edge id=":NE_Center_6" function="internal">
        <lane id=":NE_Center_6_0" index="0" speed="13.89" length="27.20" shape="263.60,258.00 236.40,258.00"/>
        <lane id=":NE_Center_6_1" index="1" speed="13.89" length="27.20" shape="263.60,254.80 236.40,254.80"/>
        <lane id=":NE_Center_6_2" index="2" speed="13.89" length="27.20" shape="263.60,251.60 236.40,251.60"/>
    </edge>
    <edge id=":NE_Center_9" function="internal">
        <lane id=":NE_Center_9_0" index="0" speed="10.36" length="5.01" shape="263.60,251.60 258.64,250.89"/>
    </edge>
    <edge id=":NE_Center_21" function="internal">
        <lane id=":NE_Center_21_0" index="0" speed="10.36" length="19.50" shape="258.64,250.89 256.95,250.65 252.20,247.80 249.35,243.05 248.40,236.40"/>
    </edge>
    <edge id=":NE_Center_10" function="internal">
        <lane id=":NE_Center_10_0" index="0" speed="6.51" length="9.03" shape="258.00,236.40 258.35,238.85 259.40,240.60 261.15,241.65 263.60,242.00"/>
    </edge>
    <edge id=":NE_Center_11" function="internal">
        <lane id=":NE_Center_11_0" index="0" speed="13.89" length="27.20" shape="258.00,236.40 258.00,263.60"/>
        <lane id=":NE_Center_11_1" index="1" speed="13.89" length="27.20" shape="254.80,236.40 254.80,263.60"/>
        <lane id=":NE_Center_11_2" index="2" speed="13.89" length="27.20" shape="251.60,236.40 251.60,263.60"/>
    </edge>
    <edge id=":NE_Center_14" function="internal">
        <lane id=":NE_Center_14_0" index="0" speed="10.36" length="5.01" shape="251.60,236.40 250.89,241.36"/>
    </edge>
    <edge id=":NE_Center_22" function="internal">
        <lane id=":NE_Center_22_0" index="0" speed="10.36" length="19.50" shape="250.89,241.36 250.65,243.05 247.80,247.80 243.05,250.65 236.40,251.60"/>
    </edge>
    <edge id=":NE_Center_15" function="internal">
        <lane id=":NE_Center_15_0" index="0" speed="6.51" length="9.03" shape="236.40,242.00 238.85,241.65 240.60,240.60 241.65,238.85 242.00,236.40"/>
    </edge>
    <edge id=":NE_Center_16" function="internal">
        <lane id=":NE_Center_16_0" index="0" speed="13.89" length="27.20" shape="236.40,242.00 263.60,242.00"/>
        <lane id=":NE_Center_16_1" index="1" speed="13.89" length="27.20" shape="236.40,245.20 263.60,245.20"/>
        <lane id=":NE_Center_16_2" index="2" speed="13.89" length="27.20" shape="236.40,248.40 263.60,248.40"/>
    </edge>
    <edge id=":NE_Center_19" function="internal">
        <lane id=":NE_Center_19_0" index="0" speed="10.36" length="5.01" shape="236.40,248.40 241.36,249.11"/>
    </edge>
    <edge id=":NE_Center_23" function="internal">
        <lane id=":NE_Center_23_0" index="0" speed="10.36" length="19.50" shape="241.36,249.11 243.05,249.35 247.80,252.20 250.65,256.95 251.60,263.60"/>
    </edge>
    <edge id=":NW_Center_0" function="internal">
        <lane id=":NW_Center_0_0" index="0" speed="6.51" length="9.03" shape="-258.00,263.60 -258.35,261.15 -259.40,259.40 -261.15,258.35 -263.60,258.00"/>
    </edge>
    <edge id=":NW_Center_1" function="internal">
        <lane id=":NW_Center_1_0" index="0" speed="13.89" length="27.20" shape="-258.00,263.60 -258.00,236.40"/>
        <lane id=":NW_Center_1_1" index="1" speed="13.89" length="27.20" shape="-254.80,263.60 -254.80,236.40"/>
        <lane id=":NW_Center_1_2" index="2" speed="13.89" length="27.20" shape="-251.60,263.60 -251.60,236.40"/>
    </edge>
    <edge id=":NW_Center_4" function="internal">
        <lane id=":NW_Center_4_0" index="0" speed="10.36" length="5.01" shape="-251.60,263.60 -250.89,258.64"/>
    </edge>
    <edge id=":NW_Center_20" function="internal">
        <lane id=":NW_Center_20_0" index="0" speed="10.36" length="19.50" shape="-250.89,258.64 -250.65,256.95 -247.80,252.20 -243.05,249.35 -236.40,248.40"/>
    </edge>
    <edge id=":NW_Center_5" function="internal">
        <lane id=":NW_Center_5_0" index="0" speed="6.51" length="9.03" shape="-236.40,258.00 -238.85,258.35 -240.60,259.40 -241.65,261.15 -242.00,263.60"/>
    </edge>
    <edge id=":NW_Center_6" function="internal">
        <lane id=":NW_Center_6_0" index="0" speed="13.89" length="27.20" shape="-236.40,258.00 -263.60,258.00"/>
        <lane id=":NW_Center_6_1" index="1" speed="13.89" length="27.20" shape="-236.40,254.80 -263.60,254.80"/>
        <lane id=":NW_Center_6_2" index="2" speed="13.89" length="27.20" shape="-236.40,251.60 -263.60,251.60"/>
    </edge>
    <edge id=":NW_Center_9" function="internal">
        <lane id=":NW_Center_9_0" index="0" speed="10.36" length="5.01" shape="-236.40,251.60 -241.36,250.89"/>
    </edge>
    <edge id=":NW_Center_21" function="internal">
        <lane id=":NW_Center_21_0" index="0" speed="10.36" length="19.50" shape="-241.36,250.89 -243.05,250.65 -247.80,247.80 -250.65,243.05 -251.60,236.40"/>
    </edge>
    <edge id=":NW_Center_10" function="internal">
        <lane id=":NW_Center_10_0" index="0" speed="6.51" length="9.03" shape="-242.00,236.40 -241.65,238.85 -240.60,240.60 -238.85,241.65 -236.40,242.00"/>
    </edge>
    <edge id=":NW_Center_11" function="internal">
        <lane id=":NW_Center_11_0" index="0" speed="13.89" length="27.20" shape="-242.00,236.40 -242.00,263.60"/>
        <lane id=":NW_Center_11_1" index="1" speed="13.89" length="27.20" shape="-245.20,236.40 -245.20,263.60"/>
        <lane id=":NW_Center_11_2" index="2" speed="13.89" length="27.20" shape="-248.40,236.40 -248.40,263.60"/>
    </edge>
    <edge id=":NW_Center_14" function="internal">
        <lane id=":NW_Center_14_0" index="0" speed="10.36" length="5.01" shape="-248.40,236.40 -249.11,241.36"/>
    </edge>
    <edge id=":NW_Center_22" function="internal">
        <lane id=":NW_Center_22_0" index="0" speed="10.36" length="19.50" shape="-249.11,241.36 -249.35,243.05 -252.20,247.80 -256.95,250.65 -263.60,251.60"/>
    </edge>
    <edge id=":NW_Center_15" function="internal">
        <lane id=":NW_Center_15_0" index="0" speed="6.51" length="9.03" shape="-263.60,242.00 -261.15,241.65 -259.40,240.60 -258.35,238.85 -258.00,236.40"/>
    </edge>
    <edge id=":NW_Center_16" function="internal">
        <lane id=":NW_Center_16_0" index="0" speed="13.89" length="27.20" shape="-263.60,242.00 -236.40,242.00"/>
        <lane id=":NW_Center_16_1" index="1" speed="13.89" length="27.20" shape="-263.60,245.20 -236.40,245.20"/>
        <lane id=":NW_Center_16_2" index="2" speed="13.89" length="27.20" shape="-263.60,248.40 -236.40,248.40"/>
    </edge>
    <edge id=":NW_Center_19" function="internal">
        <lane id=":NW_Center_19_0" index="0" speed="10.36" length="5.01" shape="-263.60,248.40 -258.64,249.11"/>
    </edge>
    <edge id=":NW_Center_23" function="internal">
        <lane id=":NW_Center_23_0" index="0" speed="10.36" length="19.50" shape="-258.64,249.11 -256.95,249.35 -252.20,252.20 -249.35,256.95 -248.40,263.60"/>
    </edge>
    <edge id=":SE_Center_0" function="internal">
        <lane id=":SE_Center_0_0" index="0" speed="6.51" length="9.03" shape="242.00,-236.40 241.65,-238.85 240.60,-240.60 238.85,-241.65 236.40,-242.00"/>
    </edge>
    <edge id=":SE_Center_1" function="internal">
        <lane id=":SE_Center_1_0" index="0" speed="13.89" length="27.20" shape="242.00,-236.40 242.00,-263.60"/>
        <lane id=":SE_Center_1_1" index="1" speed="13.89" length="27.20" shape="245.20,-236.40 245.20,-263.60"/>
        <lane id=":SE_Center_1_2" index="2" speed="13.89" length="27.20" shape="248.40,-236.40 248.40,-263.60"/>
    </edge>
    <edge id=":SE_Center_4" function="internal">
        <lane id=":SE_Center_4_0" index="0" speed="10.36" length="5.01" shape="248.40,-236.40 249.11,-241.36"/>
    </edge>
    <edge id=":SE_Center_20" function="internal">
        <lane id=":SE_Center_20_0" index="0" speed="10.36" length="19.50" shape="249.11,-241.36 249.35,-243.05 252.20,-247.80 256.95,-250.65 263.60,-251.60"/>
    </edge>
    <edge id=":SE_Center_5" function="internal">
        <lane id=":SE_Center_5_0" index="0" speed="6.51" length="9.03" shape="263.60,-242.00 261.15,-241.65 259.40,-240.60 258.35,-238.85 258.00,-236.40"/>
    </edge>
    <edge id=":SE_Center_6" function="internal">
        <lane id=":SE_Center_6_0" index="0" speed="13.89" length="27.20" shape="263.60,-242.00 236.40,-242.00"/>
        <lane id=":SE_Center_6_1" index="1" speed="13.89" length="27.20" shape="263.60,-245.20 236.40,-245.20"/>
        <lane id=":SE_Center_6_2" index="2" speed="13.89" length="27.20" shape="263.60,-248.40 236.40,-248.40"/>
    </edge>
    <edge id=":SE_Center_9" function="internal">
        <lane id=":SE_Center_9_0" index="0" speed="10.36" length="5.01" shape="263.60,-248.40 258.64,-249.11"/>
    </edge>
    <edge id=":SE_Center_21" function="internal">
        <lane id=":SE_Center_21_0" index="0" speed="10.36" length="19.50" shape="258.64,-249.11 256.95,-249.35 252.20,-252.20 249.35,-256.95 248.40,-263.60"/>
    </edge>
    <edge id=":SE_Center_10" function="internal">
        <lane id=":SE_Center_10_0" index="0" speed="6.51" length="9.03" shape="258.00,-263.60 258.35,-261.15 259.40,-259.40 261.15,-258.35 263.60,-258.00"/>
    </edge>
    <edge id=":SE_Center_11" function="internal">
        <lane id=":SE_Center_11_0" index="0" speed="13.89" length="27.20" shape="258.00,-263.60 258.00,-236.40"/>
        <lane id=":SE_Center_11_1" index="1" speed="13.89" length="27.20" shape="254.80,-263.60 254.80,-236.40"/>
        <lane id=":SE_Center_11_2" index="2" speed="13.89" length="27.20" shape="251.60,-263.60 251.60,-236.40"/>
    </edge>
    <edge id=":SE_Center_14" function="internal">
        <lane id=":SE_Center_14_0" index="0" speed="10.36" length="5.01" shape="251.60,-263.60 250.89,-258.64"/>
    </edge>
    <edge id=":SE_Center_22" function="internal">
        <lane id=":SE_Center_22_0" index="0" speed="10.36" length="19.50" shape="250.89,-258.64 250.65,-256.95 247.80,-252.20 243.05,-249.35 236.40,-248.40"/>
    </edge>
    <edge id=":SE_Center_15" function="internal">
        <lane id=":SE_Center_15_0" index="0" speed="6.51" length="9.03" shape="236.40,-258.00 238.85,-258.35 240.60,-259.40 241.65,-261.15 242.00,-263.60"/>
    </edge>
    <edge id=":SE_Center_16" function="internal">
        <lane id=":SE_Center_16_0" index="0" speed="13.89" length="27.20" shape="236.40,-258.00 263.60,-258.00"/>
        <lane id=":SE_Center_16_1" index="1" speed="13.89" length="27.20" shape="236.40,-254.80 263.60,-254.80"/>
        <lane id=":SE_Center_16_2" index="2" speed="13.89" length="27.20" shape="236.40,-251.60 263.60,-251.60"/>
    </edge>
    <edge id=":SE_Center_19" function="internal">
        <lane id=":SE_Center_19_0" index="0" speed="10.36" length="5.01" shape="236.40,-251.60 241.36,-250.89"/>
    </edge>
    <edge id=":SE_Center_23" function="internal">
        <lane id=":SE_Center_23_0" index="0" speed="10.36" length="19.50" shape="241.36,-250.89 243.05,-250.65 247.80,-247.80 250.65,-243.05 251.60,-236.40"/>
    </edge>
    <edge id=":SW_Center_0" function="internal">
        <lane id=":SW_Center_0_0" index="0" speed="6.51" length="9.03" shape="-258.00,-236.40 -258.35,-238.85 -259.40,-240.60 -261.15,-241.65 -263.60,-242.00"/>
    </edge>
    <edge id=":SW_Center_1" function="internal">
        <lane id=":SW_Center_1_0" index="0" speed="13.89" length="27.20" shape="-258.00,-236.40 -258.00,-263.60"/>
        <lane id=":SW_Center_1_1" index="1" speed="13.89" length="27.20" shape="-254.80,-236.40 -254.80,-263.60"/>
        <lane id=":SW_Center_1_2" index="2" speed="13.89" length="27.20" shape="-251.60,-236.40 -251.60,-263.60"/>
    </edge>
    <edge id=":SW_Center_4" function="internal">
        <lane id=":SW_Center_4_0" index="0" speed="10.36" length="5.01" shape="-251.60,-236.40 -250.89,-241.36"/>
    </edge>
    <edge id=":SW_Center_20" function="internal">
        <lane id=":SW_Center_20_0" index="0" speed="10.36" length="19.50" shape="-250.89,-241.36 -250.65,-243.05 -247.80,-247.80 -243.05,-250.65 -236.40,-251.60"/>
    </edge>
    <edge id=":SW_Center_5" function="internal">
        <lane id=":SW_Center_5_0" index="0" speed="6.51" length="9.03" shape="-236.40,-242.00 -238.85,-241.65 -240.60,-240.60 -241.65,-238.85 -242.00,-236.40"/>
    </edge>
    <edge id=":SW_Center_6" function="internal">
        <lane id=":SW_Center_6_0" index="0" speed="13.89" length="27.20" shape="-236.40,-242.00 -263.60,-242.00"/>
        <lane id=":SW_Center_6_1" index="1" speed="13.89" length="27.20" shape="-236.40,-245.20 -263.60,-245.20"/>
        <lane id=":SW_Center_6_2" index="2" speed="13.89" length="27.20" shape="-236.40,-248.40 -263.60,-248.40"/>
    </edge>
    <edge id=":SW_Center_9" function="internal">
        <lane id=":SW_Center_9_0" index="0" speed="10.36" length="5.01" shape="-236.40,-248.40 -241.36,-249.11"/>
    </edge>
    <edge id=":SW_Center_21" function="internal">
        <lane id=":SW_Center_21_0" index="0" speed="10.36" length="19.50" shape="-241.36,-249.11 -243.05,-249.35 -247.80,-252.20 -250.65,-256.95 -251.60,-263.60"/>
    </edge>
    <edge id=":SW_Center_10" function="internal">
        <lane id=":SW_Center_10_0" index="0" speed="6.51" length="9.03" shape="-242.00,-263.60 -241.65,-261.15 -240.60,-259.40 -238.85,-258.35 -236.40,-258.00"/>
    </edge>
    <edge id=":SW_Center_11" function="internal">
        <lane id=":SW_Center_11_0" index="0" speed="13.89" length="27.20" shape="-242.00,-263.60 -242.00,-236.40"/>
        <lane id=":SW_Center_11_1" index="1" speed="13.89" length="27.20" shape="-245.20,-263.60 -245.20,-236.40"/>
        <lane id=":SW_Center_11_2" index="2" speed="13.89" length="27.20" shape="-248.40,-263.60 -248.40,-236.40"/>
    </edge>
    <edge id=":SW_Center_14" function="internal">
        <lane id=":SW_Center_14_0" index="0" speed="10.36" length="5.01" shape="-248.40,-263.60 -249.11,-258.64"/>
    </edge>
    <edge id=":SW_Center_22" function="internal">
        <lane id=":SW_Center_22_0" index="0" speed="10.36" length="19.50" shape="-249.11,-258.64 -249.35,-256.95 -252.20,-252.20 -256.95,-249.35 -263.60,-248.40"/>
    </edge>
    <edge id=":SW_Center_15" function="internal">
        <lane id=":SW_Center_15_0" index="0" speed="6.51" length="9.03" shape="-263.60,-258.00 -261.15,-258.35 -259.40,-259.40 -258.35,-261.15 -258.00,-263.60"/>
    </edge>
    <edge id=":SW_Center_16" function="internal">
        <lane id=":SW_Center_16_0" index="0" speed="13.89" length="27.20" shape="-263.60,-258.00 -236.40,-258.00"/>
        <lane id=":SW_Center_16_1" index="1" speed="13.89" length="27.20" shape="-263.60,-254.80 -236.40,-254.80"/>
        <lane id=":SW_Center_16_2" index="2" speed="13.89" length="27.20" shape="-263.60,-251.60 -236.40,-251.60"/>
    </edge>
    <edge id=":SW_Center_19" function="internal">
        <lane id=":SW_Center_19_0" index="0" speed="10.36" length="5.01" shape="-263.60,-251.60 -258.64,-250.89"/>
    </edge>
    <edge id=":SW_Center_23" function="internal">
        <lane id=":SW_Center_23_0" index="0" speed="10.36" length="19.50" shape="-258.64,-250.89 -256.95,-250.65 -252.20,-247.80 -249.35,-243.05 -248.40,-236.40"/>
    </edge>

    <edge id="-E0" from="NW_Center" to="WN" priority="-1">
        <lane id="-E0_0" index="0" speed="13.89" length="236.40" shape="-263.60,258.00 -500.00,258.00"/>
        <lane id="-E0_1" index="1" speed="13.89" length="236.40" shape="-263.60,254.80 -500.00,254.80"/>
        <lane id="-E0_2" index="2" speed="13.89" length="236.40" shape="-263.60,251.60 -500.00,251.60"/>
    </edge>
    <edge id="-E1" from="NE_Center" to="NW_Center" priority="-1">
        <lane id="-E1_0" index="0" speed="13.89" length="472.80" shape="236.40,258.00 -236.40,258.00"/>
        <lane id="-E1_1" index="1" speed="13.89" length="472.80" shape="236.40,254.80 -236.40,254.80"/>
        <lane id="-E1_2" index="2" speed="13.89" length="472.80" shape="236.40,251.60 -236.40,251.60"/>
    </edge>
    <edge id="-E10" from="SW" to="SW_Center" priority="-1">
        <lane id="-E10_0" index="0" speed="13.89" length="236.40" shape="-242.00,-500.00 -242.00,-263.60"/>
        <lane id="-E10_1" index="1" speed="13.89" length="236.40" shape="-245.20,-500.00 -245.20,-263.60"/>
        <lane id="-E10_2" index="2" speed="13.89" length="236.40" shape="-248.40,-500.00 -248.40,-263.60"/>
    </edge>
    <edge id="-E11" from="WS" to="SW_Center" priority="-1">
        <lane id="-E11_0" index="0" speed="13.89" length="236.40" shape="-500.00,-258.00 -263.60,-258.00"/>
        <lane id="-E11_1" index="1" speed="13.89" length="236.40" shape="-500.00,-254.80 -263.60,-254.80"/>
        <lane id="-E11_2" index="2" speed="13.89" length="236.40" shape="-500.00,-251.60 -263.60,-251.60"/>
    </edge>
    <edge id="-E2" from="NW_Center" to="NW" priority="-1">
        <lane id="-E2_0" index="0" speed="13.89" length="236.40" shape="-242.00,263.60 -242.00,500.00"/>
        <lane id="-E2_1" index="1" speed="13.89" length="236.40" shape="-245.20,263.60 -245.20,500.00"/>
        <lane id="-E2_2" index="2" speed="13.89" length="236.40" shape="-248.40,263.60 -248.40,500.00"/>
    </edge>
    <edge id="-E3" from="SW_Center" to="NW_Center" priority="-1">
        <lane id="-E3_0" index="0" speed="13.89" length="472.80" shape="-242.00,-236.40 -242.00,236.40"/>
        <lane id="-E3_1" index="1" speed="13.89" length="472.80" shape="-245.20,-236.40 -245.20,236.40"/>
        <lane id="-E3_2" index="2" speed="13.89" length="472.80" shape="-248.40,-236.40 -248.40,236.40"/>
    </edge>
    <edge id="-E4" from="EN" to="NE_Center" priority="-1">
        <lane id="-E4_0" index="0" speed="13.89" length="236.40" shape="500.00,258.00 263.60,258.00"/>
        <lane id="-E4_1" index="1" speed="13.89" length="236.40" shape="500.00,254.80 263.60,254.80"/>
        <lane id="-E4_2" index="2" speed="13.89" length="236.40" shape="500.00,251.60 263.60,251.60"/>
    </edge>
    <edge id="-E5" from="NE" to="NE_Center" priority="-1">
        <lane id="-E5_0" index="0" speed="13.89" length="236.40" shape="242.00,500.00 242.00,263.60"/>
        <lane id="-E5_1" index="1" speed="13.89" length="236.40" shape="245.20,500.00 245.20,263.60"/>
        <lane id="-E5_2" index="2" speed="13.89" length="236.40" shape="248.40,500.00 248.40,263.60"/>
    </edge>
    <edge id="-E6" from="SE_Center" to="NE_Center" priority="-1">
        <lane id="-E6_0" index="0" speed="13.89" length="472.80" shape="258.00,-236.40 258.00,236.40"/>
        <lane id="-E6_1" index="1" speed="13.89" length="472.80" shape="254.80,-236.40 254.80,236.40"/>
        <lane id="-E6_2" index="2" speed="13.89" length="472.80" shape="251.60,-236.40 251.60,236.40"/>
    </edge>
    <edge id="-E7" from="SW_Center" to="SE_Center" priority="-1">
        <lane id="-E7_0" index="0" speed="13.89" length="472.80" shape="-236.40,-258.00 236.40,-258.00"/>
        <lane id="-E7_1" index="1" speed="13.89" length="472.80" shape="-236.40,-254.80 236.40,-254.80"/>
        <lane id="-E7_2" index="2" speed="13.89" length="472.80" shape="-236.40,-251.60 236.40,-251.60"/>
    </edge>
    <edge id="-E8" from="EW" to="SE_Center" priority="-1">
        <lane id="-E8_0" index="0" speed="13.89" length="236.40" shape="500.00,-242.00 263.60,-242.00"/>
        <lane id="-E8_1" index="1" speed="13.89" length="236.40" shape="500.00,-245.20 263.60,-245.20"/>
        <lane id="-E8_2" index="2" speed="13.89" length="236.40" shape="500.00,-248.40 263.60,-248.40"/>
    </edge>
    <edge id="-E9" from="SE" to="SE_Center" priority="-1">
        <lane id="-E9_0" index="0" speed="13.89" length="236.40" shape="258.00,-500.00 258.00,-263.60"/>
        <lane id="-E9_1" index="1" speed="13.89" length="236.40" shape="254.80,-500.00 254.80,-263.60"/>
        <lane id="-E9_2" index="2" speed="13.89" length="236.40" shape="251.60,-500.00 251.60,-263.60"/>
    </edge>
    <edge id="E0" from="WN" to="NW_Center" priority="-1">
        <lane id="E0_0" index="0" speed="13.89" length="236.40" shape="-500.00,242.00 -263.60,242.00"/>
        <lane id="E0_1" index="1" speed="13.89" length="236.40" shape="-500.00,245.20 -263.60,245.20"/>
        <lane id="E0_2" index="2" speed="13.89" length="236.40" shape="-500.00,248.40 -263.60,248.40"/>
    </edge>
    <edge id="E1" from="NW_Center" to="NE_Center" priority="-1">
        <lane id="E1_0" index="0" speed="13.89" length="472.80" shape="-236.40,242.00 236.40,242.00"/>
        <lane id="E1_1" index="1" speed="13.89" length="472.80" shape="-236.40,245.20 236.40,245.20"/>
        <lane id="E1_2" index="2" speed="13.89" length="472.80" shape="-236.40,248.40 236.40,248.40"/>
    </edge>
    <edge id="E10" from="SW_Center" to="SW" priority="-1">
        <lane id="E10_0" index="0" speed="13.89" length="236.40" shape="-258.00,-263.60 -258.00,-500.00"/>
        <lane id="E10_1" index="1" speed="13.89" length="236.40" shape="-254.80,-263.60 -254.80,-500.00"/>
        <lane id="E10_2" index="2" speed="13.89" length="236.40" shape="-251.60,-263.60 -251.60,-500.00"/>
    </edge>
    <edge id="E11" from="SW_Center" to="WS" priority="-1">
        <lane id="E11_0" index="0" speed="13.89" length="236.40" shape="-263.60,-242.00 -500.00,-242.00"/>
        <lane id="E11_1" index="1" speed="13.89" length="236.40" shape="-263.60,-245.20 -500.00,-245.20"/>
        <lane id="E11_2" index="2" speed="13.89" length="236.40" shape="-263.60,-248.40 -500.00,-248.40"/>
    </edge>
    <edge id="E2" from="NW" to="NW_Center" priority="-1">
        <lane id="E2_0" index="0" speed="13.89" length="236.40" shape="-258.00,500.00 -258.00,263.60"/>
        <lane id="E2_1" index="1" speed="13.89" length="236.40" shape="-254.80,500.00 -254.80,263.60"/>
        <lane id="E2_2" index="2" speed="13.89" length="236.40" shape="-251.60,500.00 -251.60,263.60"/>
    </edge>
    <edge id="E3" from="NW_Center" to="SW_Center" priority="-1">
        <lane id="E3_0" index="0" speed="13.89" length="472.80" shape="-258.00,236.40 -258.00,-236.40"/>
        <lane id="E3_1" index="1" speed="13.89" length="472.80" shape="-254.80,236.40 -254.80,-236.40"/>
        <lane id="E3_2" index="2" speed="13.89" length="472.80" shape="-251.60,236.40 -251.60,-236.40"/>
    </edge>
    <edge id="E4" from="NE_Center" to="EN" priority="-1">
        <lane id="E4_0" index="0" speed="13.89" length="236.40" shape="263.60,242.00 500.00,242.00"/>
        <lane id="E4_1" index="1" speed="13.89" length="236.40" shape="263.60,245.20 500.00,245.20"/>
        <lane id="E4_2" index="2" speed="13.89" length="236.40" shape="263.60,248.40 500.00,248.40"/>
    </edge>
    <edge id="E5" from="NE_Center" to="NE" priority="-1">
        <lane id="E5_0" index="0" speed="13.89" length="236.40" shape="258.00,263.60 258.00,500.00"/>
        <lane id="E5_1" index="1" speed="13.89" length="236.40" shape="254.80,263.60 254.80,500.00"/>
        <lane id="E5_2" index="2" speed="13.89" length="236.40" shape="251.60,263.60 251.60,500.00"/>
    </edge>
    <edge id="E6" from="NE_Center" to="SE_Center" priority="-1">
        <lane id="E6_0" index="0" speed="13.89" length="472.80" shape="242.00,236.40 242.00,-236.40"/>
        <lane id="E6_1" index="1" speed="13.89" length="472.80" shape="245.20,236.40 245.20,-236.40"/>
        <lane id="E6_2" index="2" speed="13.89" length="472.80" shape="248.40,236.40 248.40,-236.40"/>
    </edge>
    <edge id="E7" from="SE_Center" to="SW_Center" priority="-1">
        <lane id="E7_0" index="0" speed="13.89" length="472.80" shape="236.40,-242.00 -236.40,-242.00"/>
        <lane id="E7_1" index="1" speed="13.89" length="472.80" shape="236.40,-245.20 -236.40,-245.20"/>
        <lane id="E7_2" index="2" speed="13.89" length="472.80" shape="236.40,-248.40 -236.40,-248.40"/>
    </edge>
    <edge id="E8" from="SE_Center" to="EW" priority="-1">
        <lane id="E8_0" index="0" speed="13.89" length="236.40" shape="263.60,-258.00 500.00,-258.00"/>
        <lane id="E8_1" index="1" speed="13.89" length="236.40" shape="263.60,-254.80 500.00,-254.80"/>
        <lane id="E8_2" index="2" speed="13.89" length="236.40" shape="263.60,-251.60 500.00,-251.60"/>
    </edge>
    <edge id="E9" from="SE_Center" to="SE" priority="-1">
        <lane id="E9_0" index="0" speed="13.89" length="236.40" shape="242.00,-263.60 242.00,-500.00"/>
        <lane id="E9_1" index="1" speed="13.89" length="236.40" shape="245.20,-263.60 245.20,-500.00"/>
        <lane id="E9_2" index="2" speed="13.89" length="236.40" shape="248.40,-263.60 248.40,-500.00"/>
    </edge>

    <tlLogic id="NE_Center" type="static" programID="0" offset="0">
        <phase duration="42" state="GGGGgrrrrrGGGGgrrrrr"/>
        <phase duration="3"  state="yyyyyrrrrryyyyyrrrrr"/>
        <phase duration="42" state="rrrrrGGGGgrrrrrGGGGg"/>
        <phase duration="3"  state="rrrrryyyyyrrrrryyyyy"/>
    </tlLogic>
    <tlLogic id="NW_Center" type="static" programID="0" offset="0">
        <phase duration="42" state="GGGGgrrrrrGGGGgrrrrr"/>
        <phase duration="3"  state="yyyyyrrrrryyyyyrrrrr"/>
        <phase duration="42" state="rrrrrGGGGgrrrrrGGGGg"/>
        <phase duration="3"  state="rrrrryyyyyrrrrryyyyy"/>
    </tlLogic>
    <tlLogic id="SE_Center" type="static" programID="0" offset="0">
        <phase duration="42" state="GGGGgrrrrrGGGGgrrrrr"/>
        <phase duration="3"  state="yyyyyrrrrryyyyyrrrrr"/>
        <phase duration="42" state="rrrrrGGGGgrrrrrGGGGg"/>
        <phase duration="3"  state="rrrrryyyyyrrrrryyyyy"/>
    </tlLogic>
    <tlLogic id="SW_Center" type="static" programID="0" offset="0">
        <phase duration="42" state="GGGGgrrrrrGGGGgrrrrr"/>
        <phase duration="3"  state="yyyyyrrrrryyyyyrrrrr"/>
        <phase duration="42" state="rrrrrGGGGgrrrrrGGGGg"/>
        <phase duration="3"  state="rrrrryyyyyrrrrryyyyy"/>
    </tlLogic>

    <junction id="EN" type="dead_end" x="500.00" y="250.00" incLanes="E4_0 E4_1 E4_2" intLanes="" shape="500.00,250.00 500.00,240.40 500.00,250.00"/>
    <junction id="EW" type="dead_end" x="500.00" y="-250.00" incLanes="E8_0 E8_1 E8_2" intLanes="" shape="500.00,-250.00 500.00,-259.60 500.00,-250.00"/>
    <junction id="NE" type="dead_end" x="250.00" y="500.00" incLanes="E5_0 E5_1 E5_2" intLanes="" shape="250.00,500.00 259.60,500.00 250.00,500.00"/>
    <junction id="NE_Center" type="traffic_light" x="250.00" y="250.00" incLanes="-E5_0 -E5_1 -E5_2 -E4_0 -E4_1 -E4_2 -E6_0 -E6_1 -E6_2 E1_0 E1_1 E1_2" intLanes=":NE_Center_0_0 :NE_Center_1_0 :NE_Center_1_1 :NE_Center_1_2 :NE_Center_20_0 :NE_Center_5_0 :NE_Center_6_0 :NE_Center_6_1 :NE_Center_6_2 :NE_Center_21_0 :NE_Center_10_0 :NE_Center_11_0 :NE_Center_11_1 :NE_Center_11_2 :NE_Center_22_0 :NE_Center_15_0 :NE_Center_16_0 :NE_Center_16_1 :NE_Center_16_2 :NE_Center_23_0" shape="240.40,263.60 259.60,263.60 260.04,261.38 260.60,260.60 261.38,260.04 262.38,259.71 263.60,259.60 263.60,240.40 261.38,239.96 260.60,239.40 260.04,238.62 259.71,237.62 259.60,236.40 240.40,236.40 239.96,238.62 239.40,239.40 238.62,239.96 237.62,240.29 236.40,240.40 236.40,259.60 238.62,260.04 239.40,260.60 239.96,261.38 240.29,262.38">
        <request index="0"  response="00000000000000000000" foes="00000000000111000000" cont="0"/>
        <request index="1"  response="10000000001000000000" foes="11111100001111000000" cont="0"/>
        <request index="2"  response="10000000001000000000" foes="11111100001111000000" cont="0"/>
        <request index="3"  response="10000000001000000000" foes="11111100001111000000" cont="0"/>
        <request index="4"  response="10000011101000000000" foes="11110011101111000000" cont="1"/>
        <request index="5"  response="00000011100000000000" foes="00000011100000000000" cont="0"/>
        <request index="6"  response="00000111100000011111" foes="10000111100000011111" cont="0"/>
        <request index="7"  response="00000111100000011111" foes="10000111100000011111" cont="0"/>
        <request index="8"  response="00000111100000011111" foes="10000111100000011111" cont="0"/>
        <request index="9"  response="01110111100000011110" foes="01110111100000011110" cont="1"/>
        <request index="10" response="00000000000000000000" foes="01110000000000000000" cont="0"/>
        <request index="11" response="10000000001000000000" foes="11110000001111110000" cont="0"/>
        <request index="12" response="10000000001000000000" foes="11110000001111110000" cont="0"/>
        <request index="13" response="10000000001000000000" foes="11110000001111110000" cont="0"/>
        <request index="14" response="10000000001000001110" foes="11110000001111001110" cont="1"/>